MODEL 1
REMARK VINA RESULT:      -5.9      0.000      0.000
REMARK  3 active torsions:
REMARK  status: ('A' for Active; 'I' for Inactive)
REMARK    1  A    between atoms: C2_1281  and  C21_1286 
REMARK    2  A    between atoms: C3_1282  and  O31_1290 
REMARK    3  A    between atoms: C21_1286  and  C22_1287 
ROOT
HETATM    1  N1  PRZ A 300      88.515  82.319  84.163  1.00 31.00    -0.243 NA
HETATM    2  C2  PRZ A 300      87.655  83.237  84.653  1.00 26.24     0.100 A 
HETATM    3  C3  PRZ A 300      87.710  84.533  84.133  1.00 19.59     0.192 A 
HETATM    4  N4  PRZ A 300      88.604  84.825  83.167  1.00 21.22    -0.218 NA
HETATM    5  C5  PRZ A 300      89.444  83.913  82.698  1.00 27.12     0.122 A 
HETATM    6  C6  PRZ A 300      89.397  82.619  83.216  1.00 42.19     0.119 A 
ENDROOT
BRANCH   2   7
HETATM    7  C21 PRZ A 300      86.639  82.792  85.726  1.00 35.53     0.050 C 
BRANCH   7   8
HETATM    8  C22 PRZ A 300      87.356  82.363  87.015  1.00 30.67     0.006 C 
HETATM    9  C23 PRZ A 300      86.319  81.897  88.041  1.00 31.70     0.000 C 
HETATM   10  C24 PRZ A 300      88.203  83.507  87.586  1.00 29.79     0.000 C 
ENDBRANCH   7   8
ENDBRANCH   2   7
BRANCH   3  11
HETATM   11  O31 PRZ A 300      86.886  85.464  84.685  1.00 20.55    -0.311 OA
HETATM   12  C31 PRZ A 300      87.571  86.414  85.492  1.00 23.58     0.183 C 
ENDBRANCH   3  11
TORSDOF 3
ENDMDL
MODEL 2
REMARK VINA RESULT:      -5.6      2.164      4.306
REMARK  3 active torsions:
REMARK  status: ('A' for Active; 'I' for Inactive)
REMARK    1  A    between atoms: C2_1281  and  C21_1286 
REMARK    2  A    between atoms: C3_1282  and  O31_1290 
REMARK    3  A    between atoms: C21_1286  and  C22_1287 
ROOT
HETATM    1  N1  PRZ A 300      85.614  82.761  84.375  1.00 31.00    -0.243 NA
HETATM    2  C2  PRZ A 300      86.759  82.734  85.089  1.00 26.24     0.100 A 
HETATM    3  C3  PRZ A 300      86.665  82.673  86.482  1.00 19.59     0.192 A 
HETATM    4  N4  PRZ A 300      85.450  82.637  87.066  1.00 21.22    -0.218 NA
HETATM    5  C5  PRZ A 300      84.335  82.667  86.351  1.00 27.12     0.122 A 
HETATM    6  C6  PRZ A 300      84.421  82.733  84.961  1.00 42.19     0.119 A 
ENDROOT
BRANCH   2   7
HETATM    7  C21 PRZ A 300      88.100  82.733  84.324  1.00 35.53     0.050 C 
BRANCH   7   8
HETATM    8  C22 PRZ A 300      88.234  83.989  83.451  1.00 30.67     0.006 C 
HETATM    9  C23 PRZ A 300      89.533  83.910  82.644  1.00 31.70     0.000 C 
HETATM   10  C24 PRZ A 300      88.206  85.264  84.303  1.00 29.79     0.000 C 
ENDBRANCH   7   8
ENDBRANCH   2   7
BRANCH   3  11
HETATM   11  O31 PRZ A 300      87.825  82.718  87.190  1.00 20.55    -0.311 OA
HETATM   12  C31 PRZ A 300      88.068  83.983  87.793  1.00 23.58     0.183 C 
ENDBRANCH   3  11
TORSDOF 3
ENDMDL
MODEL 3
REMARK VINA RESULT:      -5.5      2.508      3.872
REMARK  3 active torsions:
REMARK  status: ('A' for Active; 'I' for Inactive)
REMARK    1  A    between atoms: C2_1281  and  C21_1286 
REMARK    2  A    between atoms: C3_1282  and  O31_1290 
REMARK    3  A    between atoms: C21_1286  and  C22_1287 
ROOT
HETATM    1  N1  PRZ A 300      84.647  83.596  86.939  1.00 31.00    -0.243 NA
HETATM    2  C2  PRZ A 300      85.675  83.916  86.124  1.00 26.24     0.100 A 
HETATM    3  C3  PRZ A 300      85.672  83.398  84.826  1.00 19.59     0.192 A 
HETATM    4  N4  PRZ A 300      84.653  82.610  84.426  1.00 21.22    -0.218 NA
HETATM    5  C5  PRZ A 300      83.652  82.303  85.239  1.00 27.12     0.122 A 
HETATM    6  C6  PRZ A 300      83.651  82.813  86.538  1.00 42.19     0.119 A 
ENDROOT
BRANCH   2   7
HETATM    7  C21 PRZ A 300      86.770  84.862  86.661  1.00 35.53     0.050 C 
BRANCH   7   8
HETATM    8  C22 PRZ A 300      88.008  84.071  87.109  1.00 30.67     0.006 C 
HETATM    9  C23 PRZ A 300      87.572  82.699  87.629  1.00 31.70     0.000 C 
HETATM   10  C24 PRZ A 300      88.793  84.831  88.185  1.00 29.79     0.000 C 
ENDBRANCH   7   8
ENDBRANCH   2   7
BRANCH   3  11
HETATM   11  O31 PRZ A 300      86.748  83.671  84.041  1.00 20.55    -0.311 OA
HETATM   12  C31 PRZ A 300      87.635  82.567  83.899  1.00 23.58     0.183 C 
ENDBRANCH   3  11
TORSDOF 3
ENDMDL
MODEL 4
REMARK VINA RESULT:      -5.4      2.925      4.662
REMARK  3 active torsions:
REMARK  status: ('A' for Active; 'I' for Inactive)
REMARK    1  A    between atoms: C2_1281  and  C21_1286 
REMARK    2  A    between atoms: C3_1282  and  O31_1290 
REMARK    3  A    between atoms: C21_1286  and  C22_1287 
ROOT
HETATM    1  N1  PRZ A 300      85.556  82.775  85.052  1.00 31.00    -0.243 NA
HETATM    2  C2  PRZ A 300      85.923  82.669  86.347  1.00 26.24     0.100 A 
HETATM    3  C3  PRZ A 300      84.935  82.365  87.288  1.00 19.59     0.192 A 
HETATM    4  N4  PRZ A 300      83.663  82.182  86.882  1.00 21.22    -0.218 NA
HETATM    5  C5  PRZ A 300      83.318  82.292  85.607  1.00 27.12     0.122 A 
HETATM    6  C6  PRZ A 300      84.298  82.601  84.663  1.00 42.19     0.119 A 
ENDROOT
BRANCH   2   7
HETATM    7  C21 PRZ A 300      87.414  82.852  86.704  1.00 35.53     0.050 C 
BRANCH   7   8
HETATM    8  C22 PRZ A 300      87.670  84.248  87.290  1.00 30.67     0.006 C 
HETATM    9  C23 PRZ A 300      87.801  85.260  86.149  1.00 31.70     0.000 C 
HETATM   10  C24 PRZ A 300      88.928  84.259  88.168  1.00 29.79     0.000 C 
ENDBRANCH   7   8
ENDBRANCH   2   7
BRANCH   3  11
HETATM   11  O31 PRZ A 300      85.307  82.330  88.595  1.00 20.55    -0.311 OA
HETATM   12  C31 PRZ A 300      84.886  81.149  89.269  1.00 23.58     0.183 C 
ENDBRANCH   3  11
TORSDOF 3
ENDMDL
MODEL 5
REMARK VINA RESULT:      -5.2      1.710      3.044
REMARK  3 active torsions:
REMARK  status: ('A' for Active; 'I' for Inactive)
REMARK    1  A    between atoms: C2_1281  and  C21_1286 
REMARK    2  A    between atoms: C3_1282  and  O31_1290 
REMARK    3  A    between atoms: C21_1286  and  C22_1287 
ROOT
HETATM    1  N1  PRZ A 300      86.406  85.200  86.389  1.00 31.00    -0.243 NA
HETATM    2  C2  PRZ A 300      86.432  83.992  85.787  1.00 26.24     0.100 A 
HETATM    3  C3  PRZ A 300      87.261  83.829  84.674  1.00 19.59     0.192 A 
HETATM    4  N4  PRZ A 300      88.006  84.866  84.241  1.00 21.22    -0.218 NA
HETATM    5  C5  PRZ A 300      87.967  86.047  84.841  1.00 27.12     0.122 A 
HETATM    6  C6  PRZ A 300      87.138  86.219  85.950  1.00 42.19     0.119 A 
ENDROOT
BRANCH   2   7
HETATM    7  C21 PRZ A 300      85.577  82.855  86.387  1.00 35.53     0.050 C 
BRANCH   7   8
HETATM    8  C22 PRZ A 300      86.052  82.501  87.804  1.00 30.67     0.006 C 
HETATM    9  C23 PRZ A 300      87.341  81.680  87.716  1.00 31.70     0.000 C 
HETATM   10  C24 PRZ A 300      84.973  81.729  88.574  1.00 29.79     0.000 C 
ENDBRANCH   7   8
ENDBRANCH   2   7
BRANCH   3  11
HETATM   11  O31 PRZ A 300      87.223  82.628  84.037  1.00 20.55    -0.311 OA
HETATM   12  C31 PRZ A 300      88.515  82.096  83.763  1.00 23.58     0.183 C 
ENDBRANCH   3  11
TORSDOF 3
ENDMDL
MODEL 6
REMARK VINA RESULT:      -5.1      2.502      4.748
REMARK  3 active torsions:
REMARK  status: ('A' for Active; 'I' for Inactive)
REMARK    1  A    between atoms: C2_1281  and  C21_1286 
REMARK    2  A    between atoms: C3_1282  and  O31_1290 
REMARK    3  A    between atoms: C21_1286  and  C22_1287 
ROOT
HETATM    1  N1  PRZ A 300      87.186  82.416  86.779  1.00 31.00    -0.243 NA
HETATM    2  C2  PRZ A 300      86.218  82.627  85.863  1.00 26.24     0.100 A 
HETATM    3  C3  PRZ A 300      84.887  82.562  86.286  1.00 19.59     0.192 A 
HETATM    4  N4  PRZ A 300      84.611  82.300  87.580  1.00 21.22    -0.218 NA
HETATM    5  C5  PRZ A 300      85.574  82.092  88.466  1.00 27.12     0.122 A 
HETATM    6  C6  PRZ A 300      86.904  82.151  88.051  1.00 42.19     0.119 A 
ENDROOT
BRANCH   2   7
HETATM    7  C21 PRZ A 300      86.637  82.966  84.417  1.00 35.53     0.050 C 
BRANCH   7   8
HETATM    8  C22 PRZ A 300      88.070  83.517  84.376  1.00 30.67     0.006 C 
HETATM    9  C23 PRZ A 300      88.036  84.985  83.943  1.00 31.70     0.000 C 
HETATM   10  C24 PRZ A 300      88.953  82.695  83.429  1.00 29.79     0.000 C 
ENDBRANCH   7   8
ENDBRANCH   2   7
BRANCH   3  11
HETATM   11  O31 PRZ A 300      83.922  82.708  85.339  1.00 20.55    -0.311 OA
HETATM   12  C31 PRZ A 300      82.746  81.956  85.614  1.00 23.58     0.183 C 
ENDBRANCH   3  11
TORSDOF 3
ENDMDL
MODEL 7
REMARK VINA RESULT:      -5.1      1.873      4.403
REMARK  3 active torsions:
REMARK  status: ('A' for Active; 'I' for Inactive)
REMARK    1  A    between atoms: C2_1281  and  C21_1286 
REMARK    2  A    between atoms: C3_1282  and  O31_1290 
REMARK    3  A    between atoms: C21_1286  and  C22_1287 
ROOT
HETATM    1  N1  PRZ A 300      88.132  83.972  86.379  1.00 31.00    -0.243 NA
HETATM    2  C2  PRZ A 300      87.352  83.737  85.302  1.00 26.24     0.100 A 
HETATM    3  C3  PRZ A 300      86.237  82.909  85.466  1.00 19.59     0.192 A 
HETATM    4  N4  PRZ A 300      85.972  82.382  86.678  1.00 21.22    -0.218 NA
HETATM    5  C5  PRZ A 300      86.749  82.620  87.725  1.00 27.12     0.122 A 
HETATM    6  C6  PRZ A 300      87.866  83.441  87.568  1.00 42.19     0.119 A 
ENDROOT
BRANCH   2   7
HETATM    7  C21 PRZ A 300      87.715  84.424  83.969  1.00 35.53     0.050 C 
BRANCH   7   8
HETATM    8  C22 PRZ A 300      89.132  84.038  83.521  1.00 30.67     0.006 C 
HETATM    9  C23 PRZ A 300      89.476  84.783  82.229  1.00 31.70     0.000 C 
HETATM   10  C24 PRZ A 300      89.257  82.523  83.319  1.00 29.79     0.000 C 
ENDBRANCH   7   8
ENDBRANCH   2   7
BRANCH   3  11
HETATM   11  O31 PRZ A 300      85.501  82.625  84.358  1.00 20.55    -0.311 OA
HETATM   12  C31 PRZ A 300      84.120  82.423  84.637  1.00 23.58     0.183 C 
ENDBRANCH   3  11
TORSDOF 3
ENDMDL
MODEL 8
REMARK VINA RESULT:      -5.1      2.763      4.053
REMARK  3 active torsions:
REMARK  status: ('A' for Active; 'I' for Inactive)
REMARK    1  A    between atoms: C2_1281  and  C21_1286 
REMARK    2  A    between atoms: C3_1282  and  O31_1290 
REMARK    3  A    between atoms: C21_1286  and  C22_1287 
ROOT
HETATM    1  N1  PRZ A 300      85.989  82.354  87.852  1.00 31.00    -0.243 NA
HETATM    2  C2  PRZ A 300      85.508  83.316  87.035  1.00 26.24     0.100 A 
HETATM    3  C3  PRZ A 300      86.421  84.191  86.440  1.00 19.59     0.192 A 
HETATM    4  N4  PRZ A 300      87.739  84.048  86.689  1.00 21.22    -0.218 NA
HETATM    5  C5  PRZ A 300      88.195  83.100  87.495  1.00 27.12     0.122 A 
HETATM    6  C6  PRZ A 300      87.289  82.227  88.096  1.00 42.19     0.119 A 
ENDROOT
BRANCH   2   7
HETATM    7  C21 PRZ A 300      83.987  83.367  86.779  1.00 35.53     0.050 C 
BRANCH   7   8
HETATM    8  C22 PRZ A 300      83.511  82.103  86.048  1.00 30.67     0.006 C 
HETATM    9  C23 PRZ A 300      83.896  82.197  84.569  1.00 31.70     0.000 C 
HETATM   10  C24 PRZ A 300      81.997  81.911  86.199  1.00 29.79     0.000 C 
ENDBRANCH   7   8
ENDBRANCH   2   7
BRANCH   3  11
HETATM   11  O31 PRZ A 300      85.917  85.197  85.677  1.00 20.55    -0.311 OA
HETATM   12  C31 PRZ A 300      86.227  85.063  84.294  1.00 23.58     0.183 C 
ENDBRANCH   3  11
TORSDOF 3
ENDMDL
MODEL 9
REMARK VINA RESULT:      -5.0      3.164      4.556
REMARK  3 active torsions:
REMARK  status: ('A' for Active; 'I' for Inactive)
REMARK    1  A    between atoms: C2_1281  and  C21_1286 
REMARK    2  A    between atoms: C3_1282  and  O31_1290 
REMARK    3  A    between atoms: C21_1286  and  C22_1287 
ROOT
HETATM    1  N1  PRZ A 300      86.029  85.036  86.251  1.00 31.00    -0.243 NA
HETATM    2  C2  PRZ A 300      85.578  83.940  86.898  1.00 26.24     0.100 A 
HETATM    3  C3  PRZ A 300      86.492  83.199  87.653  1.00 19.59     0.192 A 
HETATM    4  N4  PRZ A 300      87.778  83.597  87.719  1.00 21.22    -0.218 NA
HETATM    5  C5  PRZ A 300      88.206  84.674  87.076  1.00 27.12     0.122 A 
HETATM    6  C6  PRZ A 300      87.301  85.416  86.317  1.00 42.19     0.119 A 
ENDROOT
BRANCH   2   7
HETATM    7  C21 PRZ A 300      84.077  83.594  86.796  1.00 35.53     0.050 C 
BRANCH   7   8
HETATM    8  C22 PRZ A 300      83.862  82.327  85.954  1.00 30.67     0.006 C 
HETATM    9  C23 PRZ A 300      84.307  82.594  84.514  1.00 31.70     0.000 C 
HETATM   10  C24 PRZ A 300      82.396  81.878  85.992  1.00 29.79     0.000 C 
ENDBRANCH   7   8
ENDBRANCH   2   7
BRANCH   3  11
HETATM   11  O31 PRZ A 300      86.038  82.059  88.240  1.00 20.55    -0.311 OA
HETATM   12  C31 PRZ A 300      86.981  80.994  88.203  1.00 23.58     0.183 C 
ENDBRANCH   3  11
TORSDOF 3
ENDMDL
