MODEL 1
REMARK VINA RESULT:      -6.4      0.000      0.000
REMARK  3 active torsions:
REMARK  status: ('A' for Active; 'I' for Inactive)
REMARK    1  A    between atoms: C2_1281  and  C21_1286 
REMARK    2  A    between atoms: C3_1282  and  O31_1290 
REMARK    3  A    between atoms: C21_1286  and  C22_1287 
ROOT
HETATM    1  N1  PRZ A 300      24.255  37.326  36.920  1.00 31.00    -0.243 NA
HETATM    2  C2  PRZ A 300      24.167  36.829  38.172  1.00 26.24     0.100 A 
HETATM    3  C3  PRZ A 300      22.980  37.035  38.880  1.00 19.59     0.192 A 
HETATM    4  N4  PRZ A 300      21.967  37.709  38.300  1.00 21.22    -0.218 NA
HETATM    5  C5  PRZ A 300      22.070  38.194  37.070  1.00 27.12     0.122 A 
HETATM    6  C6  PRZ A 300      23.253  37.996  36.359  1.00 42.19     0.119 A 
ENDROOT
BRANCH   2   7
HETATM    7  C21 PRZ A 300      25.365  36.032  38.730  1.00 35.53     0.050 C 
BRANCH   7   8
HETATM    8  C22 PRZ A 300      26.227  35.468  37.591  1.00 30.67     0.006 C 
HETATM    9  C23 PRZ A 300      25.450  34.368  36.863  1.00 31.70     0.000 C 
HETATM   10  C24 PRZ A 300      27.561  34.926  38.120  1.00 29.79     0.000 C 
ENDBRANCH   7   8
ENDBRANCH   2   7
BRANCH   3  11
HETATM   11  O31 PRZ A 300      22.932  36.589  40.164  1.00 20.55    -0.311 OA
HETATM   12  C31 PRZ A 300      21.617  36.262  40.597  1.00 23.58     0.183 C 
ENDBRANCH   3  11
TORSDOF 3
ENDMDL
MODEL 2
REMARK VINA RESULT:      -6.1      2.821      4.364
REMARK  3 active torsions:
REMARK  status: ('A' for Active; 'I' for Inactive)
REMARK    1  A    between atoms: C2_1281  and  C21_1286 
REMARK    2  A    between atoms: C3_1282  and  O31_1290 
REMARK    3  A    between atoms: C21_1286  and  C22_1287 
ROOT
HETATM    1  N1  PRZ A 300      20.887  39.102  38.975  1.00 31.00    -0.243 NA
HETATM    2  C2  PRZ A 300      21.030  38.443  37.805  1.00 26.24     0.100 A 
HETATM    3  C3  PRZ A 300      20.359  38.940  36.684  1.00 19.59     0.192 A 
HETATM    4  N4  PRZ A 300      19.603  40.050  36.799  1.00 21.22    -0.218 NA
HETATM    5  C5  PRZ A 300      19.471  40.684  37.955  1.00 27.12     0.122 A 
HETATM    6  C6  PRZ A 300      20.134  40.191  39.079  1.00 42.19     0.119 A 
ENDROOT
BRANCH   2   7
HETATM    7  C21 PRZ A 300      21.954  37.207  37.766  1.00 35.53     0.050 C 
BRANCH   7   8
HETATM    8  C22 PRZ A 300      23.431  37.628  37.737  1.00 30.67     0.006 C 
HETATM    9  C23 PRZ A 300      23.892  37.760  36.284  1.00 31.70     0.000 C 
HETATM   10  C24 PRZ A 300      24.310  36.622  38.492  1.00 29.79     0.000 C 
ENDBRANCH   7   8
ENDBRANCH   2   7
BRANCH   3  11
HETATM   11  O31 PRZ A 300      20.456  38.227  35.530  1.00 20.55    -0.311 OA
HETATM   12  C31 PRZ A 300      19.922  38.909  34.401  1.00 23.58     0.183 C 
ENDBRANCH   3  11
TORSDOF 3
ENDMDL
MODEL 3
REMARK VINA RESULT:      -6.0      2.064      4.874
REMARK  3 active torsions:
REMARK  status: ('A' for Active; 'I' for Inactive)
REMARK    1  A    between atoms: C2_1281  and  C21_1286 
REMARK    2  A    between atoms: C3_1282  and  O31_1290 
REMARK    3  A    between atoms: C21_1286  and  C22_1287 
ROOT
HETATM    1  N1  PRZ A 300      21.778  36.961  39.595  1.00 31.00    -0.243 NA
HETATM    2  C2  PRZ A 300      22.202  37.017  38.315  1.00 26.24     0.100 A 
HETATM    3  C3  PRZ A 300      23.580  37.004  38.076  1.00 19.59     0.192 A 
HETATM    4  N4  PRZ A 300      24.434  36.929  39.116  1.00 21.22    -0.218 NA
HETATM    5  C5  PRZ A 300      24.002  36.878  40.368  1.00 27.12     0.122 A 
HETATM    6  C6  PRZ A 300      22.629  36.896  40.614  1.00 42.19     0.119 A 
ENDROOT
BRANCH   2   7
HETATM    7  C21 PRZ A 300      21.143  37.054  37.192  1.00 35.53     0.050 C 
BRANCH   7   8
HETATM    8  C22 PRZ A 300      21.055  38.454  36.568  1.00 30.67     0.006 C 
HETATM    9  C23 PRZ A 300      20.074  39.308  37.375  1.00 31.70     0.000 C 
HETATM   10  C24 PRZ A 300      20.622  38.380  35.098  1.00 29.79     0.000 C 
ENDBRANCH   7   8
ENDBRANCH   2   7
BRANCH   3  11
HETATM   11  O31 PRZ A 300      23.992  37.131  36.787  1.00 20.55    -0.311 OA
HETATM   12  C31 PRZ A 300      25.254  36.523  36.538  1.00 23.58     0.183 C 
ENDBRANCH   3  11
TORSDOF 3
ENDMDL
MODEL 4
REMARK VINA RESULT:      -5.9      1.462      3.948
REMARK  3 active torsions:
REMARK  status: ('A' for Active; 'I' for Inactive)
REMARK    1  A    between atoms: C2_1281  and  C21_1286 
REMARK    2  A    between atoms: C3_1282  and  O31_1290 
REMARK    3  A    between atoms: C21_1286  and  C22_1287 
ROOT
HETATM    1  N1  PRZ A 300      24.653  36.888  36.457  1.00 31.00    -0.243 NA
HETATM    2  C2  PRZ A 300      23.935  37.452  37.452  1.00 26.24     0.100 A 
HETATM    3  C3  PRZ A 300      24.225  37.076  38.767  1.00 19.59     0.192 A 
HETATM    4  N4  PRZ A 300      25.202  36.178  39.002  1.00 21.22    -0.218 NA
HETATM    5  C5  PRZ A 300      25.896  35.631  38.014  1.00 27.12     0.122 A 
HETATM    6  C6  PRZ A 300      25.609  35.998  36.699  1.00 42.19     0.119 A 
ENDROOT
BRANCH   2   7
HETATM    7  C21 PRZ A 300      22.869  38.505  37.081  1.00 35.53     0.050 C 
BRANCH   7   8
HETATM    8  C22 PRZ A 300      21.639  37.839  36.445  1.00 30.67     0.006 C 
HETATM    9  C23 PRZ A 300      20.696  38.920  35.913  1.00 31.70     0.000 C 
HETATM   10  C24 PRZ A 300      20.913  36.938  37.452  1.00 29.79     0.000 C 
ENDBRANCH   7   8
ENDBRANCH   2   7
BRANCH   3  11
HETATM   11  O31 PRZ A 300      23.448  37.600  39.752  1.00 20.55    -0.311 OA
HETATM   12  C31 PRZ A 300      22.781  36.611  40.528  1.00 23.58     0.183 C 
ENDBRANCH   3  11
TORSDOF 3
ENDMDL
MODEL 5
REMARK VINA RESULT:      -5.9      3.508      6.275
REMARK  3 active torsions:
REMARK  status: ('A' for Active; 'I' for Inactive)
REMARK    1  A    between atoms: C2_1281  and  C21_1286 
REMARK    2  A    between atoms: C3_1282  and  O31_1290 
REMARK    3  A    between atoms: C21_1286  and  C22_1287 
ROOT
HETATM    1  N1  PRZ A 300      19.423  40.310  36.835  1.00 31.00    -0.243 NA
HETATM    2  C2  PRZ A 300      20.222  39.313  36.399  1.00 26.24     0.100 A 
HETATM    3  C3  PRZ A 300      21.048  38.676  37.330  1.00 19.59     0.192 A 
HETATM    4  N4  PRZ A 300      21.019  39.064  38.621  1.00 21.22    -0.218 NA
HETATM    5  C5  PRZ A 300      20.230  40.047  39.033  1.00 27.12     0.122 A 
HETATM    6  C6  PRZ A 300      19.408  40.691  38.108  1.00 42.19     0.119 A 
ENDROOT
BRANCH   2   7
HETATM    7  C21 PRZ A 300      20.149  38.912  34.910  1.00 35.53     0.050 C 
BRANCH   7   8
HETATM    8  C22 PRZ A 300      19.093  39.745  34.169  1.00 30.67     0.006 C 
HETATM    9  C23 PRZ A 300      18.199  38.815  33.346  1.00 31.70     0.000 C 
HETATM   10  C24 PRZ A 300      19.749  40.799  33.269  1.00 29.79     0.000 C 
ENDBRANCH   7   8
ENDBRANCH   2   7
BRANCH   3  11
HETATM   11  O31 PRZ A 300      21.897  37.722  36.863  1.00 20.55    -0.311 OA
HETATM   12  C31 PRZ A 300      23.263  38.120  36.896  1.00 23.58     0.183 C 
ENDBRANCH   3  11
TORSDOF 3
ENDMDL
MODEL 6
REMARK VINA RESULT:      -5.9      1.995      4.880
REMARK  3 active torsions:
REMARK  status: ('A' for Active; 'I' for Inactive)
REMARK    1  A    between atoms: C2_1281  and  C21_1286 
REMARK    2  A    between atoms: C3_1282  and  O31_1290 
REMARK    3  A    between atoms: C21_1286  and  C22_1287 
ROOT
HETATM    1  N1  PRZ A 300      22.502  38.098  36.252  1.00 31.00    -0.243 NA
HETATM    2  C2  PRZ A 300      21.669  37.685  37.231  1.00 26.24     0.100 A 
HETATM    3  C3  PRZ A 300      22.207  36.927  38.276  1.00 19.59     0.192 A 
HETATM    4  N4  PRZ A 300      23.524  36.638  38.279  1.00 21.22    -0.218 NA
HETATM    5  C5  PRZ A 300      24.328  37.049  37.309  1.00 27.12     0.122 A 
HETATM    6  C6  PRZ A 300      23.797  37.801  36.261  1.00 42.19     0.119 A 
ENDROOT
BRANCH   2   7
HETATM    7  C21 PRZ A 300      20.186  38.107  37.160  1.00 35.53     0.050 C 
BRANCH   7   8
HETATM    8  C22 PRZ A 300      20.036  39.622  37.364  1.00 30.67     0.006 C 
HETATM    9  C23 PRZ A 300      20.265  39.959  38.840  1.00 31.70     0.000 C 
HETATM   10  C24 PRZ A 300      18.656  40.110  36.907  1.00 29.79     0.000 C 
ENDBRANCH   7   8
ENDBRANCH   2   7
BRANCH   3  11
HETATM   11  O31 PRZ A 300      21.344  36.460  39.217  1.00 20.55    -0.311 OA
HETATM   12  C31 PRZ A 300      21.896  36.448  40.529  1.00 23.58     0.183 C 
ENDBRANCH   3  11
TORSDOF 3
ENDMDL
MODEL 7
REMARK VINA RESULT:      -5.7      3.456      4.821
REMARK  3 active torsions:
REMARK  status: ('A' for Active; 'I' for Inactive)
REMARK    1  A    between atoms: C2_1281  and  C21_1286 
REMARK    2  A    between atoms: C3_1282  and  O31_1290 
REMARK    3  A    between atoms: C21_1286  and  C22_1287 
ROOT
HETATM    1  N1  PRZ A 300      20.492  38.308  34.577  1.00 31.00    -0.243 NA
HETATM    2  C2  PRZ A 300      20.563  38.596  35.894  1.00 26.24     0.100 A 
HETATM    3  C3  PRZ A 300      19.776  39.643  36.382  1.00 19.59     0.192 A 
HETATM    4  N4  PRZ A 300      18.974  40.323  35.537  1.00 21.22    -0.218 NA
HETATM    5  C5  PRZ A 300      18.918  40.030  34.246  1.00 27.12     0.122 A 
HETATM    6  C6  PRZ A 300      19.704  38.989  33.751  1.00 42.19     0.119 A 
ENDROOT
BRANCH   2   7
HETATM    7  C21 PRZ A 300      21.476  37.729  36.787  1.00 35.53     0.050 C 
BRANCH   7   8
HETATM    8  C22 PRZ A 300      22.828  38.419  37.022  1.00 30.67     0.006 C 
HETATM    9  C23 PRZ A 300      23.921  37.668  36.258  1.00 31.70     0.000 C 
HETATM   10  C24 PRZ A 300      23.164  38.486  38.517  1.00 29.79     0.000 C 
ENDBRANCH   7   8
ENDBRANCH   2   7
BRANCH   3  11
HETATM   11  O31 PRZ A 300      19.910  39.967  37.696  1.00 20.55    -0.311 OA
HETATM   12  C31 PRZ A 300      18.843  40.769  38.190  1.00 23.58     0.183 C 
ENDBRANCH   3  11
TORSDOF 3
ENDMDL
MODEL 8
REMARK VINA RESULT:      -5.7      4.050      6.162
REMARK  3 active torsions:
REMARK  status: ('A' for Active; 'I' for Inactive)
REMARK    1  A    between atoms: C2_1281  and  C21_1286 
REMARK    2  A    between atoms: C3_1282  and  O31_1290 
REMARK    3  A    between atoms: C21_1286  and  C22_1287 
ROOT
HETATM    1  N1  PRZ A 300      20.473  37.458  36.944  1.00 31.00    -0.243 NA
HETATM    2  C2  PRZ A 300      19.861  38.658  36.856  1.00 26.24     0.100 A 
HETATM    3  C3  PRZ A 300      20.123  39.606  37.850  1.00 19.59     0.192 A 
HETATM    4  N4  PRZ A 300      20.972  39.301  38.852  1.00 21.22    -0.218 NA
HETATM    5  C5  PRZ A 300      21.563  38.117  38.927  1.00 27.12     0.122 A 
HETATM    6  C6  PRZ A 300      21.302  37.165  37.940  1.00 42.19     0.119 A 
ENDROOT
BRANCH   2   7
HETATM    7  C21 PRZ A 300      18.942  38.926  35.645  1.00 35.53     0.050 C 
BRANCH   7   8
HETATM    8  C22 PRZ A 300      19.751  39.444  34.446  1.00 30.67     0.006 C 
HETATM    9  C23 PRZ A 300      19.469  40.936  34.251  1.00 31.70     0.000 C 
HETATM   10  C24 PRZ A 300      19.416  38.660  33.171  1.00 29.79     0.000 C 
ENDBRANCH   7   8
ENDBRANCH   2   7
BRANCH   3  11
HETATM   11  O31 PRZ A 300      19.446  40.783  37.786  1.00 20.55    -0.311 OA
HETATM   12  C31 PRZ A 300      18.553  40.979  38.877  1.00 23.58     0.183 C 
ENDBRANCH   3  11
TORSDOF 3
ENDMDL
MODEL 9
REMARK VINA RESULT:      -5.7      2.931      4.078
REMARK  3 active torsions:
REMARK  status: ('A' for Active; 'I' for Inactive)
REMARK    1  A    between atoms: C2_1281  and  C21_1286 
REMARK    2  A    between atoms: C3_1282  and  O31_1290 
REMARK    3  A    between atoms: C21_1286  and  C22_1287 
ROOT
HETATM    1  N1  PRZ A 300      21.910  37.948  37.003  1.00 31.00    -0.243 NA
HETATM    2  C2  PRZ A 300      21.443  38.657  38.053  1.00 26.24     0.100 A 
HETATM    3  C3  PRZ A 300      20.317  39.462  37.855  1.00 19.59     0.192 A 
HETATM    4  N4  PRZ A 300      19.734  39.503  36.640  1.00 21.22    -0.218 NA
HETATM    5  C5  PRZ A 300      20.206  38.804  35.619  1.00 27.12     0.122 A 
HETATM    6  C6  PRZ A 300      21.332  38.002  35.808  1.00 42.19     0.119 A 
ENDROOT
BRANCH   2   7
HETATM    7  C21 PRZ A 300      22.154  38.506  39.415  1.00 35.53     0.050 C 
BRANCH   7   8
HETATM    8  C22 PRZ A 300      22.633  37.062  39.626  1.00 30.67     0.006 C 
HETATM    9  C23 PRZ A 300      21.640  36.326  40.529  1.00 31.70     0.000 C 
HETATM   10  C24 PRZ A 300      24.041  37.028  40.233  1.00 29.79     0.000 C 
ENDBRANCH   7   8
ENDBRANCH   2   7
BRANCH   3  11
HETATM   11  O31 PRZ A 300      19.901  40.223  38.902  1.00 20.55    -0.311 OA
HETATM   12  C31 PRZ A 300      18.714  40.957  38.627  1.00 23.58     0.183 C 
ENDBRANCH   3  11
TORSDOF 3
ENDMDL
