MODEL 1
REMARK VINA RESULT:      -6.2      0.000      0.000
REMARK  3 active torsions:
REMARK  status: ('A' for Active; 'I' for Inactive)
REMARK    1  A    between atoms: C2_1281  and  C21_1286 
REMARK    2  A    between atoms: C3_1282  and  O31_1290 
REMARK    3  A    between atoms: C21_1286  and  C22_1287 
ROOT
HETATM    1  N1  PRZ A 300     -22.121  46.720  38.118  1.00 31.00    -0.243 NA
HETATM    2  C2  PRZ A 300     -22.128  47.009  36.799  1.00 26.24     0.100 A 
HETATM    3  C3  PRZ A 300     -21.753  48.297  36.405  1.00 19.59     0.192 A 
HETATM    4  N4  PRZ A 300     -21.395  49.201  37.340  1.00 21.22    -0.218 NA
HETATM    5  C5  PRZ A 300     -21.397  48.903  38.631  1.00 27.12     0.122 A 
HETATM    6  C6  PRZ A 300     -21.774  47.621  39.032  1.00 42.19     0.119 A 
ENDROOT
BRANCH   2   7
HETATM    7  C21 PRZ A 300     -22.509  45.891  35.805  1.00 35.53     0.050 C 
BRANCH   7   8
HETATM    8  C22 PRZ A 300     -21.256  45.269  35.172  1.00 30.67     0.006 C 
HETATM    9  C23 PRZ A 300     -21.611  44.705  33.794  1.00 31.70     0.000 C 
HETATM   10  C24 PRZ A 300     -20.666  44.173  36.068  1.00 29.79     0.000 C 
ENDBRANCH   7   8
ENDBRANCH   2   7
BRANCH   3  11
HETATM   11  O31 PRZ A 300     -21.832  48.593  35.081  1.00 20.55    -0.311 OA
HETATM   12  C31 PRZ A 300     -21.468  49.936  34.782  1.00 23.58     0.183 C 
ENDBRANCH   3  11
TORSDOF 3
ENDMDL
MODEL 2
REMARK VINA RESULT:      -6.1      1.517      2.619
REMARK  3 active torsions:
REMARK  status: ('A' for Active; 'I' for Inactive)
REMARK    1  A    between atoms: C2_1281  and  C21_1286 
REMARK    2  A    between atoms: C3_1282  and  O31_1290 
REMARK    3  A    between atoms: C21_1286  and  C22_1287 
ROOT
HETATM    1  N1  PRZ A 300     -22.031  47.934  35.021  1.00 31.00    -0.243 NA
HETATM    2  C2  PRZ A 300     -21.950  47.104  36.083  1.00 26.24     0.100 A 
HETATM    3  C3  PRZ A 300     -21.690  47.664  37.338  1.00 19.59     0.192 A 
HETATM    4  N4  PRZ A 300     -21.537  48.999  37.452  1.00 21.22    -0.218 NA
HETATM    5  C5  PRZ A 300     -21.617  49.800  36.399  1.00 27.12     0.122 A 
HETATM    6  C6  PRZ A 300     -21.871  49.247  35.143  1.00 42.19     0.119 A 
ENDROOT
BRANCH   2   7
HETATM    7  C21 PRZ A 300     -22.186  45.596  35.856  1.00 35.53     0.050 C 
BRANCH   7   8
HETATM    8  C22 PRZ A 300     -21.095  45.000  34.953  1.00 30.67     0.006 C 
HETATM    9  C23 PRZ A 300     -21.732  44.488  33.659  1.00 31.70     0.000 C 
HETATM   10  C24 PRZ A 300     -20.341  43.871  35.667  1.00 29.79     0.000 C 
ENDBRANCH   7   8
ENDBRANCH   2   7
BRANCH   3  11
HETATM   11  O31 PRZ A 300     -21.542  46.810  38.385  1.00 20.55    -0.311 OA
HETATM   12  C31 PRZ A 300     -22.269  47.207  39.542  1.00 23.58     0.183 C 
ENDBRANCH   3  11
TORSDOF 3
ENDMDL
MODEL 3
REMARK VINA RESULT:      -5.0      3.428      5.796
REMARK  3 active torsions:
REMARK  status: ('A' for Active; 'I' for Inactive)
REMARK    1  A    between atoms: C2_1281  and  C21_1286 
REMARK    2  A    between atoms: C3_1282  and  O31_1290 
REMARK    3  A    between atoms: C21_1286  and  C22_1287 
ROOT
HETATM    1  N1  PRZ A 300     -20.027  43.590  35.304  1.00 31.00    -0.243 NA
HETATM    2  C2  PRZ A 300     -21.121  43.757  34.531  1.00 26.24     0.100 A 
HETATM    3  C3  PRZ A 300     -21.796  42.614  34.090  1.00 19.59     0.192 A 
HETATM    4  N4  PRZ A 300     -21.345  41.395  34.448  1.00 21.22    -0.218 NA
HETATM    5  C5  PRZ A 300     -20.267  41.248  35.205  1.00 27.12     0.122 A 
HETATM    6  C6  PRZ A 300     -19.586  42.383  35.645  1.00 42.19     0.119 A 
ENDROOT
BRANCH   2   7
HETATM    7  C21 PRZ A 300     -21.583  45.195  34.214  1.00 35.53     0.050 C 
BRANCH   7   8
HETATM    8  C22 PRZ A 300     -21.477  46.092  35.456  1.00 30.67     0.006 C 
HETATM    9  C23 PRZ A 300     -22.340  45.509  36.578  1.00 31.70     0.000 C 
HETATM   10  C24 PRZ A 300     -21.903  47.531  35.140  1.00 29.79     0.000 C 
ENDBRANCH   7   8
ENDBRANCH   2   7
BRANCH   3  11
HETATM   11  O31 PRZ A 300     -22.854  42.796  33.255  1.00 20.55    -0.311 OA
HETATM   12  C31 PRZ A 300     -23.635  41.621  33.073  1.00 23.58     0.183 C 
ENDBRANCH   3  11
TORSDOF 3
ENDMDL
MODEL 4
REMARK VINA RESULT:      -4.6      4.440      6.817
REMARK  3 active torsions:
REMARK  status: ('A' for Active; 'I' for Inactive)
REMARK    1  A    between atoms: C2_1281  and  C21_1286 
REMARK    2  A    between atoms: C3_1282  and  O31_1290 
REMARK    3  A    between atoms: C21_1286  and  C22_1287 
ROOT
HETATM    1  N1  PRZ A 300     -20.075  41.637  35.901  1.00 31.00    -0.243 NA
HETATM    2  C2  PRZ A 300     -21.340  41.922  35.525  1.00 26.24     0.100 A 
HETATM    3  C3  PRZ A 300     -22.141  40.874  35.062  1.00 19.59     0.192 A 
HETATM    4  N4  PRZ A 300     -21.638  39.624  35.011  1.00 21.22    -0.218 NA
HETATM    5  C5  PRZ A 300     -20.393  39.361  35.382  1.00 27.12     0.122 A 
HETATM    6  C6  PRZ A 300     -19.586  40.403  35.840  1.00 42.19     0.119 A 
ENDROOT
BRANCH   2   7
HETATM    7  C21 PRZ A 300     -21.837  43.377  35.664  1.00 35.53     0.050 C 
BRANCH   7   8
HETATM    8  C22 PRZ A 300     -21.086  44.307  34.699  1.00 30.67     0.006 C 
HETATM    9  C23 PRZ A 300     -21.071  45.726  35.272  1.00 31.70     0.000 C 
HETATM   10  C24 PRZ A 300     -21.727  44.295  33.306  1.00 29.79     0.000 C 
ENDBRANCH   7   8
ENDBRANCH   2   7
BRANCH   3  11
HETATM   11  O31 PRZ A 300     -23.388  41.188  34.621  1.00 20.55    -0.311 OA
HETATM   12  C31 PRZ A 300     -23.678  40.661  33.332  1.00 23.58     0.183 C 
ENDBRANCH   3  11
TORSDOF 3
ENDMDL
MODEL 5
REMARK VINA RESULT:      -4.5      1.897      4.420
REMARK  3 active torsions:
REMARK  status: ('A' for Active; 'I' for Inactive)
REMARK    1  A    between atoms: C2_1281  and  C21_1286 
REMARK    2  A    between atoms: C3_1282  and  O31_1290 
REMARK    3  A    between atoms: C21_1286  and  C22_1287 
ROOT
HETATM    1  N1  PRZ A 300     -21.653  46.237  34.479  1.00 31.00    -0.243 NA
HETATM    2  C2  PRZ A 300     -22.136  46.874  35.568  1.00 26.24     0.100 A 
HETATM    3  C3  PRZ A 300     -22.207  46.162  36.769  1.00 19.59     0.192 A 
HETATM    4  N4  PRZ A 300     -21.793  44.880  36.808  1.00 21.22    -0.218 NA
HETATM    5  C5  PRZ A 300     -21.324  44.268  35.730  1.00 27.12     0.122 A 
HETATM    6  C6  PRZ A 300     -21.254  44.970  34.527  1.00 42.19     0.119 A 
ENDROOT
BRANCH   2   7
HETATM    7  C21 PRZ A 300     -22.542  48.357  35.430  1.00 35.53     0.050 C 
BRANCH   7   8
HETATM    8  C22 PRZ A 300     -21.350  49.281  35.718  1.00 30.67     0.006 C 
HETATM    9  C23 PRZ A 300     -21.571  49.992  37.055  1.00 31.70     0.000 C 
HETATM   10  C24 PRZ A 300     -21.153  50.302  34.590  1.00 29.79     0.000 C 
ENDBRANCH   7   8
ENDBRANCH   2   7
BRANCH   3  11
HETATM   11  O31 PRZ A 300     -22.760  46.795  37.838  1.00 20.55    -0.311 OA
HETATM   12  C31 PRZ A 300     -21.817  47.101  38.859  1.00 23.58     0.183 C 
ENDBRANCH   3  11
TORSDOF 3
ENDMDL
MODEL 6
REMARK VINA RESULT:      -4.4      1.753      3.963
REMARK  3 active torsions:
REMARK  status: ('A' for Active; 'I' for Inactive)
REMARK    1  A    between atoms: C2_1281  and  C21_1286 
REMARK    2  A    between atoms: C3_1282  and  O31_1290 
REMARK    3  A    between atoms: C21_1286  and  C22_1287 
ROOT
HETATM    1  N1  PRZ A 300     -20.907  45.251  36.710  1.00 31.00    -0.243 NA
HETATM    2  C2  PRZ A 300     -21.068  46.531  36.315  1.00 26.24     0.100 A 
HETATM    3  C3  PRZ A 300     -21.796  46.773  35.146  1.00 19.59     0.192 A 
HETATM    4  N4  PRZ A 300     -22.314  45.735  34.459  1.00 21.22    -0.218 NA
HETATM    5  C5  PRZ A 300     -22.144  44.483  34.858  1.00 27.12     0.122 A 
HETATM    6  C6  PRZ A 300     -21.415  44.234  36.021  1.00 42.19     0.119 A 
ENDROOT
BRANCH   2   7
HETATM    7  C21 PRZ A 300     -20.475  47.652  37.196  1.00 35.53     0.050 C 
BRANCH   7   8
HETATM    8  C22 PRZ A 300     -21.560  48.291  38.075  1.00 30.67     0.006 C 
HETATM    9  C23 PRZ A 300     -21.064  49.645  38.588  1.00 31.70     0.000 C 
HETATM   10  C24 PRZ A 300     -21.936  47.375  39.247  1.00 29.79     0.000 C 
ENDBRANCH   7   8
ENDBRANCH   2   7
BRANCH   3  11
HETATM   11  O31 PRZ A 300     -21.891  48.062  34.724  1.00 20.55    -0.311 OA
HETATM   12  C31 PRZ A 300     -23.092  48.702  35.137  1.00 23.58     0.183 C 
ENDBRANCH   3  11
TORSDOF 3
ENDMDL
