MODEL 1
REMARK VINA RESULT:      -5.3      0.000      0.000
REMARK  3 active torsions:
REMARK  status: ('A' for Active; 'I' for Inactive)
REMARK    1  A    between atoms: C2_1281  and  C21_1286 
REMARK    2  A    between atoms: C3_1282  and  O31_1290 
REMARK    3  A    between atoms: C21_1286  and  C22_1287 
ROOT
HETATM    1  N1  PRZ A 300      37.980  36.978  17.707  1.00 31.00    -0.243 NA
HETATM    2  C2  PRZ A 300      36.881  36.224  17.924  1.00 26.24     0.100 A 
HETATM    3  C3  PRZ A 300      36.207  35.709  16.813  1.00 19.59     0.192 A 
HETATM    4  N4  PRZ A 300      36.670  35.969  15.574  1.00 21.22    -0.218 NA
HETATM    5  C5  PRZ A 300      37.749  36.713  15.377  1.00 27.12     0.122 A 
HETATM    6  C6  PRZ A 300      38.424  37.235  16.481  1.00 42.19     0.119 A 
ENDROOT
BRANCH   2   7
HETATM    7  C21 PRZ A 300      36.458  35.946  19.382  1.00 35.53     0.050 C 
BRANCH   7   8
HETATM    8  C22 PRZ A 300      36.057  37.246  20.095  1.00 30.67     0.006 C 
HETATM    9  C23 PRZ A 300      35.618  36.926  21.525  1.00 31.70     0.000 C 
HETATM   10  C24 PRZ A 300      34.938  37.972  19.336  1.00 29.79     0.000 C 
ENDBRANCH   7   8
ENDBRANCH   2   7
BRANCH   3  11
HETATM   11  O31 PRZ A 300      35.063  35.011  17.045  1.00 20.55    -0.311 OA
HETATM   12  C31 PRZ A 300      34.044  35.267  16.085  1.00 23.58     0.183 C 
ENDBRANCH   3  11
TORSDOF 3
ENDMDL
MODEL 2
REMARK VINA RESULT:      -5.1      1.578      2.853
REMARK  3 active torsions:
REMARK  status: ('A' for Active; 'I' for Inactive)
REMARK    1  A    between atoms: C2_1281  and  C21_1286 
REMARK    2  A    between atoms: C3_1282  and  O31_1290 
REMARK    3  A    between atoms: C21_1286  and  C22_1287 
ROOT
HETATM    1  N1  PRZ A 300      34.688  35.975  18.016  1.00 31.00    -0.243 NA
HETATM    2  C2  PRZ A 300      35.913  36.542  17.962  1.00 26.24     0.100 A 
HETATM    3  C3  PRZ A 300      36.627  36.452  16.764  1.00 19.59     0.192 A 
HETATM    4  N4  PRZ A 300      36.080  35.816  15.708  1.00 21.22    -0.218 NA
HETATM    5  C5  PRZ A 300      34.877  35.263  15.778  1.00 27.12     0.122 A 
HETATM    6  C6  PRZ A 300      34.161  35.345  16.972  1.00 42.19     0.119 A 
ENDROOT
BRANCH   2   7
HETATM    7  C21 PRZ A 300      36.432  37.287  19.210  1.00 35.53     0.050 C 
BRANCH   7   8
HETATM    8  C22 PRZ A 300      35.285  37.587  20.186  1.00 30.67     0.006 C 
HETATM    9  C23 PRZ A 300      34.899  39.064  20.076  1.00 31.70     0.000 C 
HETATM   10  C24 PRZ A 300      35.678  37.239  21.628  1.00 29.79     0.000 C 
ENDBRANCH   7   8
ENDBRANCH   2   7
BRANCH   3  11
HETATM   11  O31 PRZ A 300      37.886  36.966  16.746  1.00 20.55    -0.311 OA
HETATM   12  C31 PRZ A 300      38.263  37.489  15.477  1.00 23.58     0.183 C 
ENDBRANCH   3  11
TORSDOF 3
ENDMDL
MODEL 3
REMARK VINA RESULT:      -5.0      2.631      4.079
REMARK  3 active torsions:
REMARK  status: ('A' for Active; 'I' for Inactive)
REMARK    1  A    between atoms: C2_1281  and  C21_1286 
REMARK    2  A    between atoms: C3_1282  and  O31_1290 
REMARK    3  A    between atoms: C21_1286  and  C22_1287 
ROOT
HETATM    1  N1  PRZ A 300      34.660  35.716  20.959  1.00 31.00    -0.243 NA
HETATM    2  C2  PRZ A 300      35.612  36.647  20.739  1.00 26.24     0.100 A 
HETATM    3  C3  PRZ A 300      36.531  36.418  19.711  1.00 19.59     0.192 A 
HETATM    4  N4  PRZ A 300      36.439  35.293  18.974  1.00 21.22    -0.218 NA
HETATM    5  C5  PRZ A 300      35.499  34.387  19.205  1.00 27.12     0.122 A 
HETATM    6  C6  PRZ A 300      34.581  34.607  20.232  1.00 42.19     0.119 A 
ENDROOT
BRANCH   2   7
HETATM    7  C21 PRZ A 300      35.606  37.924  21.608  1.00 35.53     0.050 C 
BRANCH   7   8
HETATM    8  C22 PRZ A 300      34.463  38.863  21.194  1.00 30.67     0.006 C 
HETATM    9  C23 PRZ A 300      35.050  40.131  20.571  1.00 31.70     0.000 C 
HETATM   10  C24 PRZ A 300      33.571  39.213  22.392  1.00 29.79     0.000 C 
ENDBRANCH   7   8
ENDBRANCH   2   7
BRANCH   3  11
HETATM   11  O31 PRZ A 300      37.526  37.330  19.548  1.00 20.55    -0.311 OA
HETATM   12  C31 PRZ A 300      38.317  37.097  18.388  1.00 23.58     0.183 C 
ENDBRANCH   3  11
TORSDOF 3
ENDMDL
MODEL 4
REMARK VINA RESULT:      -4.9      2.702      5.096
REMARK  3 active torsions:
REMARK  status: ('A' for Active; 'I' for Inactive)
REMARK    1  A    between atoms: C2_1281  and  C21_1286 
REMARK    2  A    between atoms: C3_1282  and  O31_1290 
REMARK    3  A    between atoms: C21_1286  and  C22_1287 
ROOT
HETATM    1  N1  PRZ A 300      34.491  35.584  19.978  1.00 31.00    -0.243 NA
HETATM    2  C2  PRZ A 300      34.828  36.827  19.572  1.00 26.24     0.100 A 
HETATM    3  C3  PRZ A 300      35.352  37.710  20.521  1.00 19.59     0.192 A 
HETATM    4  N4  PRZ A 300      35.511  37.299  21.795  1.00 21.22    -0.218 NA
HETATM    5  C5  PRZ A 300      35.173  36.076  22.178  1.00 27.12     0.122 A 
HETATM    6  C6  PRZ A 300      34.645  35.192  21.238  1.00 42.19     0.119 A 
ENDROOT
BRANCH   2   7
HETATM    7  C21 PRZ A 300      34.650  37.185  18.081  1.00 35.53     0.050 C 
BRANCH   7   8
HETATM    8  C22 PRZ A 300      35.094  36.022  17.181  1.00 30.67     0.006 C 
HETATM    9  C23 PRZ A 300      36.355  36.427  16.414  1.00 31.70     0.000 C 
HETATM   10  C24 PRZ A 300      33.979  35.616  16.209  1.00 29.79     0.000 C 
ENDBRANCH   7   8
ENDBRANCH   2   7
BRANCH   3  11
HETATM   11  O31 PRZ A 300      35.621  38.979  20.113  1.00 20.55    -0.311 OA
HETATM   12  C31 PRZ A 300      34.809  39.958  20.751  1.00 23.58     0.183 C 
ENDBRANCH   3  11
TORSDOF 3
ENDMDL
MODEL 5
REMARK VINA RESULT:      -4.9      2.003      4.158
REMARK  3 active torsions:
REMARK  status: ('A' for Active; 'I' for Inactive)
REMARK    1  A    between atoms: C2_1281  and  C21_1286 
REMARK    2  A    between atoms: C3_1282  and  O31_1290 
REMARK    3  A    between atoms: C21_1286  and  C22_1287 
ROOT
HETATM    1  N1  PRZ A 300      36.355  37.820  19.473  1.00 31.00    -0.243 NA
HETATM    2  C2  PRZ A 300      36.417  36.525  19.096  1.00 26.24     0.100 A 
HETATM    3  C3  PRZ A 300      35.746  35.579  19.877  1.00 19.59     0.192 A 
HETATM    4  N4  PRZ A 300      35.059  35.982  20.965  1.00 21.22    -0.218 NA
HETATM    5  C5  PRZ A 300      35.010  37.257  21.323  1.00 27.12     0.122 A 
HETATM    6  C6  PRZ A 300      35.682  38.205  20.552  1.00 42.19     0.119 A 
ENDROOT
BRANCH   2   7
HETATM    7  C21 PRZ A 300      37.191  36.171  17.808  1.00 35.53     0.050 C 
BRANCH   7   8
HETATM    8  C22 PRZ A 300      36.406  36.602  16.561  1.00 30.67     0.006 C 
HETATM    9  C23 PRZ A 300      35.656  35.395  15.992  1.00 31.70     0.000 C 
HETATM   10  C24 PRZ A 300      37.335  37.207  15.501  1.00 29.79     0.000 C 
ENDBRANCH   7   8
ENDBRANCH   2   7
BRANCH   3  11
HETATM   11  O31 PRZ A 300      35.875  34.272  19.525  1.00 20.55    -0.311 OA
HETATM   12  C31 PRZ A 300      34.640  33.662  19.165  1.00 23.58     0.183 C 
ENDBRANCH   3  11
TORSDOF 3
ENDMDL
MODEL 6
REMARK VINA RESULT:      -4.9      1.922      3.089
REMARK  3 active torsions:
REMARK  status: ('A' for Active; 'I' for Inactive)
REMARK    1  A    between atoms: C2_1281  and  C21_1286 
REMARK    2  A    between atoms: C3_1282  and  O31_1290 
REMARK    3  A    between atoms: C21_1286  and  C22_1287 
ROOT
HETATM    1  N1  PRZ A 300      34.210  35.268  18.089  1.00 31.00    -0.243 NA
HETATM    2  C2  PRZ A 300      35.289  35.437  18.883  1.00 26.24     0.100 A 
HETATM    3  C3  PRZ A 300      36.493  35.819  18.284  1.00 19.59     0.192 A 
HETATM    4  N4  PRZ A 300      36.541  36.012  16.950  1.00 21.22    -0.218 NA
HETATM    5  C5  PRZ A 300      35.473  35.839  16.185  1.00 27.12     0.122 A 
HETATM    6  C6  PRZ A 300      34.270  35.454  16.775  1.00 42.19     0.119 A 
ENDROOT
BRANCH   2   7
HETATM    7  C21 PRZ A 300      35.119  35.237  20.404  1.00 35.53     0.050 C 
BRANCH   7   8
HETATM    8  C22 PRZ A 300      34.518  36.489  21.059  1.00 30.67     0.006 C 
HETATM    9  C23 PRZ A 300      35.646  37.371  21.598  1.00 31.70     0.000 C 
HETATM   10  C24 PRZ A 300      33.542  36.114  22.182  1.00 29.79     0.000 C 
ENDBRANCH   7   8
ENDBRANCH   2   7
BRANCH   3  11
HETATM   11  O31 PRZ A 300      37.587  35.917  19.086  1.00 20.55    -0.311 OA
HETATM   12  C31 PRZ A 300      38.328  37.114  18.882  1.00 23.58     0.183 C 
ENDBRANCH   3  11
TORSDOF 3
ENDMDL
MODEL 7
REMARK VINA RESULT:      -4.8      3.345      5.460
REMARK  3 active torsions:
REMARK  status: ('A' for Active; 'I' for Inactive)
REMARK    1  A    between atoms: C2_1281  and  C21_1286 
REMARK    2  A    between atoms: C3_1282  and  O31_1290 
REMARK    3  A    between atoms: C21_1286  and  C22_1287 
ROOT
HETATM    1  N1  PRZ A 300      36.163  38.580  22.091  1.00 31.00    -0.243 NA
HETATM    2  C2  PRZ A 300      35.542  37.638  21.349  1.00 26.24     0.100 A 
HETATM    3  C3  PRZ A 300      34.594  36.825  21.976  1.00 19.59     0.192 A 
HETATM    4  N4  PRZ A 300      34.324  37.005  23.285  1.00 21.22    -0.218 NA
HETATM    5  C5  PRZ A 300      34.944  37.933  24.001  1.00 27.12     0.122 A 
HETATM    6  C6  PRZ A 300      35.895  38.744  23.382  1.00 42.19     0.119 A 
ENDROOT
BRANCH   2   7
HETATM    7  C21 PRZ A 300      35.888  37.542  19.847  1.00 35.53     0.050 C 
BRANCH   7   8
HETATM    8  C22 PRZ A 300      36.991  36.502  19.604  1.00 30.67     0.006 C 
HETATM    9  C23 PRZ A 300      38.179  37.175  18.912  1.00 31.70     0.000 C 
HETATM   10  C24 PRZ A 300      36.473  35.328  18.765  1.00 29.79     0.000 C 
ENDBRANCH   7   8
ENDBRANCH   2   7
BRANCH   3  11
HETATM   11  O31 PRZ A 300      34.028  35.836  21.233  1.00 20.55    -0.311 OA
HETATM   12  C31 PRZ A 300      34.161  34.547  21.820  1.00 23.58     0.183 C 
ENDBRANCH   3  11
TORSDOF 3
ENDMDL
MODEL 8
REMARK VINA RESULT:      -4.7      3.027      5.080
REMARK  3 active torsions:
REMARK  status: ('A' for Active; 'I' for Inactive)
REMARK    1  A    between atoms: C2_1281  and  C21_1286 
REMARK    2  A    between atoms: C3_1282  and  O31_1290 
REMARK    3  A    between atoms: C21_1286  and  C22_1287 
ROOT
HETATM    1  N1  PRZ A 300      35.509  39.163  20.250  1.00 31.00    -0.243 NA
HETATM    2  C2  PRZ A 300      35.644  37.847  20.522  1.00 26.24     0.100 A 
HETATM    3  C3  PRZ A 300      35.031  37.348  21.675  1.00 19.59     0.192 A 
HETATM    4  N4  PRZ A 300      34.327  38.180  22.468  1.00 21.22    -0.218 NA
HETATM    5  C5  PRZ A 300      34.207  39.470  22.188  1.00 27.12     0.122 A 
HETATM    6  C6  PRZ A 300      34.820  39.976  21.042  1.00 42.19     0.119 A 
ENDROOT
BRANCH   2   7
HETATM    7  C21 PRZ A 300      36.431  36.969  19.526  1.00 35.53     0.050 C 
BRANCH   7   8
HETATM    8  C22 PRZ A 300      35.840  37.076  18.113  1.00 30.67     0.006 C 
HETATM    9  C23 PRZ A 300      34.451  36.433  18.094  1.00 31.70     0.000 C 
HETATM   10  C24 PRZ A 300      36.756  36.414  17.076  1.00 29.79     0.000 C 
ENDBRANCH   7   8
ENDBRANCH   2   7
BRANCH   3  11
HETATM   11  O31 PRZ A 300      35.233  36.036  21.972  1.00 20.55    -0.311 OA
HETATM   12  C31 PRZ A 300      34.055  35.246  21.862  1.00 23.58     0.183 C 
ENDBRANCH   3  11
TORSDOF 3
ENDMDL
MODEL 9
REMARK VINA RESULT:      -4.7      3.872      6.041
REMARK  3 active torsions:
REMARK  status: ('A' for Active; 'I' for Inactive)
REMARK    1  A    between atoms: C2_1281  and  C21_1286 
REMARK    2  A    between atoms: C3_1282  and  O31_1290 
REMARK    3  A    between atoms: C21_1286  and  C22_1287 
ROOT
HETATM    1  N1  PRZ A 300      34.660  38.659  21.708  1.00 31.00    -0.243 NA
HETATM    2  C2  PRZ A 300      34.354  37.345  21.662  1.00 26.24     0.100 A 
HETATM    3  C3  PRZ A 300      33.360  36.870  22.524  1.00 19.59     0.192 A 
HETATM    4  N4  PRZ A 300      32.739  37.727  23.360  1.00 21.22    -0.218 NA
HETATM    5  C5  PRZ A 300      33.054  39.015  23.394  1.00 27.12     0.122 A 
HETATM    6  C6  PRZ A 300      34.048  39.494  22.541  1.00 42.19     0.119 A 
ENDROOT
BRANCH   2   7
HETATM    7  C21 PRZ A 300      35.090  36.455  20.638  1.00 35.53     0.050 C 
BRANCH   7   8
HETATM    8  C22 PRZ A 300      35.749  37.307  19.544  1.00 30.67     0.006 C 
HETATM    9  C23 PRZ A 300      34.842  37.339  18.311  1.00 31.70     0.000 C 
HETATM   10  C24 PRZ A 300      37.137  36.766  19.179  1.00 29.79     0.000 C 
ENDBRANCH   7   8
ENDBRANCH   2   7
BRANCH   3  11
HETATM   11  O31 PRZ A 300      33.112  35.534  22.516  1.00 20.55    -0.311 OA
HETATM   12  C31 PRZ A 300      32.034  35.157  23.366  1.00 23.58     0.183 C 
ENDBRANCH   3  11
TORSDOF 3
ENDMDL
