MODEL 1
REMARK VINA RESULT:      -6.4      0.000      0.000
REMARK  3 active torsions:
REMARK  status: ('A' for Active; 'I' for Inactive)
REMARK    1  A    between atoms: C2_1281  and  C21_1286 
REMARK    2  A    between atoms: C3_1282  and  O31_1290 
REMARK    3  A    between atoms: C21_1286  and  C22_1287 
ROOT
HETATM    1  N1  PRZ A 300      -6.058   5.687   9.302  1.00 31.00    -0.243 NA
HETATM    2  C2  PRZ A 300      -5.847   5.687   7.968  1.00 26.24     0.100 A 
HETATM    3  C3  PRZ A 300      -5.577   4.466   7.345  1.00 19.59     0.192 A 
HETATM    4  N4  PRZ A 300      -5.541   3.336   8.081  1.00 21.22    -0.218 NA
HETATM    5  C5  PRZ A 300      -5.747   3.354   9.390  1.00 27.12     0.122 A 
HETATM    6  C6  PRZ A 300      -6.012   4.570  10.020  1.00 42.19     0.119 A 
ENDROOT
BRANCH   2   7
HETATM    7  C21 PRZ A 300      -5.955   7.027   7.208  1.00 35.53     0.050 C 
BRANCH   7   8
HETATM    8  C22 PRZ A 300      -4.565   7.631   6.963  1.00 30.67     0.006 C 
HETATM    9  C23 PRZ A 300      -3.972   8.097   8.295  1.00 31.70     0.000 C 
HETATM   10  C24 PRZ A 300      -4.635   8.796   5.967  1.00 29.79     0.000 C 
ENDBRANCH   7   8
ENDBRANCH   2   7
BRANCH   3  11
HETATM   11  O31 PRZ A 300      -5.298   4.491   6.014  1.00 20.55    -0.311 OA
HETATM   12  C31 PRZ A 300      -6.309   3.885   5.216  1.00 23.58     0.183 C 
ENDBRANCH   3  11
TORSDOF 3
ENDMDL
MODEL 2
REMARK VINA RESULT:      -6.3      1.883      4.182
REMARK  3 active torsions:
REMARK  status: ('A' for Active; 'I' for Inactive)
REMARK    1  A    between atoms: C2_1281  and  C21_1286 
REMARK    2  A    between atoms: C3_1282  and  O31_1290 
REMARK    3  A    between atoms: C21_1286  and  C22_1287 
ROOT
HETATM    1  N1  PRZ A 300      -4.995   6.550  10.309  1.00 31.00    -0.243 NA
HETATM    2  C2  PRZ A 300      -5.810   5.959   9.410  1.00 26.24     0.100 A 
HETATM    3  C3  PRZ A 300      -5.730   6.372   8.077  1.00 19.59     0.192 A 
HETATM    4  N4  PRZ A 300      -4.848   7.332   7.730  1.00 21.22    -0.218 NA
HETATM    5  C5  PRZ A 300      -4.056   7.905   8.626  1.00 27.12     0.122 A 
HETATM    6  C6  PRZ A 300      -4.135   7.501   9.959  1.00 42.19     0.119 A 
ENDROOT
BRANCH   2   7
HETATM    7  C21 PRZ A 300      -6.753   4.838   9.899  1.00 35.53     0.050 C 
BRANCH   7   8
HETATM    8  C22 PRZ A 300      -5.957   3.584  10.288  1.00 30.67     0.006 C 
HETATM    9  C23 PRZ A 300      -5.372   2.943   9.027  1.00 31.70     0.000 C 
HETATM   10  C24 PRZ A 300      -6.837   2.580  11.044  1.00 29.79     0.000 C 
ENDBRANCH   7   8
ENDBRANCH   2   7
BRANCH   3  11
HETATM   11  O31 PRZ A 300      -6.604   5.818   7.196  1.00 20.55    -0.311 OA
HETATM   12  C31 PRZ A 300      -5.968   5.217   6.074  1.00 23.58     0.183 C 
ENDBRANCH   3  11
TORSDOF 3
ENDMDL
MODEL 3
REMARK VINA RESULT:      -6.0      1.553      2.757
REMARK  3 active torsions:
REMARK  status: ('A' for Active; 'I' for Inactive)
REMARK    1  A    between atoms: C2_1281  and  C21_1286 
REMARK    2  A    between atoms: C3_1282  and  O31_1290 
REMARK    3  A    between atoms: C21_1286  and  C22_1287 
ROOT
HETATM    1  N1  PRZ A 300      -6.828   5.558   5.338  1.00 31.00    -0.243 NA
HETATM    2  C2  PRZ A 300      -6.251   5.576   6.559  1.00 26.24     0.100 A 
HETATM    3  C3  PRZ A 300      -5.865   4.356   7.122  1.00 19.59     0.192 A 
HETATM    4  N4  PRZ A 300      -6.070   3.212   6.437  1.00 21.22    -0.218 NA
HETATM    5  C5  PRZ A 300      -6.640   3.212   5.241  1.00 27.12     0.122 A 
HETATM    6  C6  PRZ A 300      -7.033   4.425   4.675  1.00 42.19     0.119 A 
ENDROOT
BRANCH   2   7
HETATM    7  C21 PRZ A 300      -6.019   6.941   7.241  1.00 35.53     0.050 C 
BRANCH   7   8
HETATM    8  C22 PRZ A 300      -4.602   7.462   6.957  1.00 30.67     0.006 C 
HETATM    9  C23 PRZ A 300      -3.985   7.986   8.256  1.00 31.70     0.000 C 
HETATM   10  C24 PRZ A 300      -4.619   8.559   5.886  1.00 29.79     0.000 C 
ENDBRANCH   7   8
ENDBRANCH   2   7
BRANCH   3  11
HETATM   11  O31 PRZ A 300      -5.350   4.383   8.380  1.00 20.55    -0.311 OA
HETATM   12  C31 PRZ A 300      -5.595   3.189   9.114  1.00 23.58     0.183 C 
ENDBRANCH   3  11
TORSDOF 3
ENDMDL
MODEL 4
REMARK VINA RESULT:      -6.0      1.968      4.290
REMARK  3 active torsions:
REMARK  status: ('A' for Active; 'I' for Inactive)
REMARK    1  A    between atoms: C2_1281  and  C21_1286 
REMARK    2  A    between atoms: C3_1282  and  O31_1290 
REMARK    3  A    between atoms: C21_1286  and  C22_1287 
ROOT
HETATM    1  N1  PRZ A 300      -4.569   7.046  10.092  1.00 31.00    -0.243 NA
HETATM    2  C2  PRZ A 300      -5.009   7.006   8.817  1.00 26.24     0.100 A 
HETATM    3  C3  PRZ A 300      -4.412   7.861   7.886  1.00 19.59     0.192 A 
HETATM    4  N4  PRZ A 300      -3.421   8.686   8.281  1.00 21.22    -0.218 NA
HETATM    5  C5  PRZ A 300      -3.002   8.716   9.538  1.00 27.12     0.122 A 
HETATM    6  C6  PRZ A 300      -3.597   7.869  10.473  1.00 42.19     0.119 A 
ENDROOT
BRANCH   2   7
HETATM    7  C21 PRZ A 300      -6.117   5.993   8.455  1.00 35.53     0.050 C 
BRANCH   7   8
HETATM    8  C22 PRZ A 300      -5.514   4.708   7.868  1.00 30.67     0.006 C 
HETATM    9  C23 PRZ A 300      -6.178   4.406   6.522  1.00 31.70     0.000 C 
HETATM   10  C24 PRZ A 300      -5.683   3.526   8.830  1.00 29.79     0.000 C 
ENDBRANCH   7   8
ENDBRANCH   2   7
BRANCH   3  11
HETATM   11  O31 PRZ A 300      -4.913   7.859   6.622  1.00 20.55    -0.311 OA
HETATM   12  C31 PRZ A 300      -4.621   9.049   5.899  1.00 23.58     0.183 C 
ENDBRANCH   3  11
TORSDOF 3
ENDMDL
MODEL 5
REMARK VINA RESULT:      -5.9      2.186      4.737
REMARK  3 active torsions:
REMARK  status: ('A' for Active; 'I' for Inactive)
REMARK    1  A    between atoms: C2_1281  and  C21_1286 
REMARK    2  A    between atoms: C3_1282  and  O31_1290 
REMARK    3  A    between atoms: C21_1286  and  C22_1287 
ROOT
HETATM    1  N1  PRZ A 300      -6.427   6.242   6.921  1.00 31.00    -0.243 NA
HETATM    2  C2  PRZ A 300      -5.971   6.340   8.188  1.00 26.24     0.100 A 
HETATM    3  C3  PRZ A 300      -4.898   7.201   8.437  1.00 19.59     0.192 A 
HETATM    4  N4  PRZ A 300      -4.358   7.903   7.420  1.00 21.22    -0.218 NA
HETATM    5  C5  PRZ A 300      -4.815   7.793   6.181  1.00 27.12     0.122 A 
HETATM    6  C6  PRZ A 300      -5.883   6.933   5.925  1.00 42.19     0.119 A 
ENDROOT
BRANCH   2   7
HETATM    7  C21 PRZ A 300      -6.686   5.529   9.290  1.00 35.53     0.050 C 
BRANCH   7   8
HETATM    8  C22 PRZ A 300      -5.868   4.287   9.674  1.00 30.67     0.006 C 
HETATM    9  C23 PRZ A 300      -5.565   3.470   8.416  1.00 31.70     0.000 C 
HETATM   10  C24 PRZ A 300      -6.612   3.431  10.707  1.00 29.79     0.000 C 
ENDBRANCH   7   8
ENDBRANCH   2   7
BRANCH   3  11
HETATM   11  O31 PRZ A 300      -4.406   7.236   9.704  1.00 20.55    -0.311 OA
HETATM   12  C31 PRZ A 300      -3.411   8.236   9.893  1.00 23.58     0.183 C 
ENDBRANCH   3  11
TORSDOF 3
ENDMDL
MODEL 6
REMARK VINA RESULT:      -5.9      1.673      3.830
REMARK  3 active torsions:
REMARK  status: ('A' for Active; 'I' for Inactive)
REMARK    1  A    between atoms: C2_1281  and  C21_1286 
REMARK    2  A    between atoms: C3_1282  and  O31_1290 
REMARK    3  A    between atoms: C21_1286  and  C22_1287 
ROOT
HETATM    1  N1  PRZ A 300      -4.846   6.622   7.903  1.00 31.00    -0.243 NA
HETATM    2  C2  PRZ A 300      -5.600   5.576   7.503  1.00 26.24     0.100 A 
HETATM    3  C3  PRZ A 300      -6.274   5.679   6.282  1.00 19.59     0.192 A 
HETATM    4  N4  PRZ A 300      -6.149   6.802   5.546  1.00 21.22    -0.218 NA
HETATM    5  C5  PRZ A 300      -5.407   7.822   5.955  1.00 27.12     0.122 A 
HETATM    6  C6  PRZ A 300      -4.736   7.727   7.174  1.00 42.19     0.119 A 
ENDROOT
BRANCH   2   7
HETATM    7  C21 PRZ A 300      -5.641   4.317   8.395  1.00 35.53     0.050 C 
BRANCH   7   8
HETATM    8  C22 PRZ A 300      -6.125   4.664   9.811  1.00 30.67     0.006 C 
HETATM    9  C23 PRZ A 300      -6.323   3.374  10.610  1.00 31.70     0.000 C 
HETATM   10  C24 PRZ A 300      -7.425   5.478   9.769  1.00 29.79     0.000 C 
ENDBRANCH   7   8
ENDBRANCH   2   7
BRANCH   3  11
HETATM   11  O31 PRZ A 300      -7.084   4.647   5.926  1.00 20.55    -0.311 OA
HETATM   12  C31 PRZ A 300      -6.504   3.788   4.951  1.00 23.58     0.183 C 
ENDBRANCH   3  11
TORSDOF 3
ENDMDL
MODEL 7
REMARK VINA RESULT:      -5.5      2.042      3.207
REMARK  3 active torsions:
REMARK  status: ('A' for Active; 'I' for Inactive)
REMARK    1  A    between atoms: C2_1281  and  C21_1286 
REMARK    2  A    between atoms: C3_1282  and  O31_1290 
REMARK    3  A    between atoms: C21_1286  and  C22_1287 
ROOT
HETATM    1  N1  PRZ A 300      -5.357   4.934   7.587  1.00 31.00    -0.243 NA
HETATM    2  C2  PRZ A 300      -4.733   6.123   7.720  1.00 26.24     0.100 A 
HETATM    3  C3  PRZ A 300      -4.811   6.773   8.956  1.00 19.59     0.192 A 
HETATM    4  N4  PRZ A 300      -5.493   6.198   9.968  1.00 21.22    -0.218 NA
HETATM    5  C5  PRZ A 300      -6.102   5.031   9.820  1.00 27.12     0.122 A 
HETATM    6  C6  PRZ A 300      -6.032   4.379   8.588  1.00 42.19     0.119 A 
ENDROOT
BRANCH   2   7
HETATM    7  C21 PRZ A 300      -3.940   6.675   6.516  1.00 35.53     0.050 C 
BRANCH   7   8
HETATM    8  C22 PRZ A 300      -4.827   7.574   5.641  1.00 30.67     0.006 C 
HETATM    9  C23 PRZ A 300      -4.547   9.041   5.975  1.00 31.70     0.000 C 
HETATM   10  C24 PRZ A 300      -6.313   7.249   5.840  1.00 29.79     0.000 C 
ENDBRANCH   7   8
ENDBRANCH   2   7
BRANCH   3  11
HETATM   11  O31 PRZ A 300      -4.237   8.001   9.054  1.00 20.55    -0.311 OA
HETATM   12  C31 PRZ A 300      -3.410   8.146  10.203  1.00 23.58     0.183 C 
ENDBRANCH   3  11
TORSDOF 3
ENDMDL
MODEL 8
REMARK VINA RESULT:      -5.1      1.641      3.410
REMARK  3 active torsions:
REMARK  status: ('A' for Active; 'I' for Inactive)
REMARK    1  A    between atoms: C2_1281  and  C21_1286 
REMARK    2  A    between atoms: C3_1282  and  O31_1290 
REMARK    3  A    between atoms: C21_1286  and  C22_1287 
ROOT
HETATM    1  N1  PRZ A 300      -5.177   7.060   7.523  1.00 31.00    -0.243 NA
HETATM    2  C2  PRZ A 300      -6.015   6.002   7.478  1.00 26.24     0.100 A 
HETATM    3  C3  PRZ A 300      -5.863   5.087   6.432  1.00 19.59     0.192 A 
HETATM    4  N4  PRZ A 300      -4.895   5.280   5.514  1.00 21.22    -0.218 NA
HETATM    5  C5  PRZ A 300      -4.082   6.326   5.571  1.00 27.12     0.122 A 
HETATM    6  C6  PRZ A 300      -4.231   7.245   6.609  1.00 42.19     0.119 A 
ENDROOT
BRANCH   2   7
HETATM    7  C21 PRZ A 300      -7.062   5.846   8.602  1.00 35.53     0.050 C 
BRANCH   7   8
HETATM    8  C22 PRZ A 300      -6.398   5.391   9.910  1.00 30.67     0.006 C 
HETATM    9  C23 PRZ A 300      -5.218   6.313  10.228  1.00 31.70     0.000 C 
HETATM   10  C24 PRZ A 300      -5.933   3.932   9.817  1.00 29.79     0.000 C 
ENDBRANCH   7   8
ENDBRANCH   2   7
BRANCH   3  11
HETATM   11  O31 PRZ A 300      -6.758   4.066   6.360  1.00 20.55    -0.311 OA
HETATM   12  C31 PRZ A 300      -6.654   3.310   5.159  1.00 23.58     0.183 C 
ENDBRANCH   3  11
TORSDOF 3
ENDMDL
MODEL 9
REMARK VINA RESULT:      -4.7      1.826      3.539
REMARK  3 active torsions:
REMARK  status: ('A' for Active; 'I' for Inactive)
REMARK    1  A    between atoms: C2_1281  and  C21_1286 
REMARK    2  A    between atoms: C3_1282  and  O31_1290 
REMARK    3  A    between atoms: C21_1286  and  C22_1287 
ROOT
HETATM    1  N1  PRZ A 300      -7.172   4.300   6.587  1.00 31.00    -0.243 NA
HETATM    2  C2  PRZ A 300      -6.240   5.243   6.843  1.00 26.24     0.100 A 
HETATM    3  C3  PRZ A 300      -5.170   5.370   5.952  1.00 19.59     0.192 A 
HETATM    4  N4  PRZ A 300      -5.103   4.564   4.873  1.00 21.22    -0.218 NA
HETATM    5  C5  PRZ A 300      -6.025   3.641   4.637  1.00 27.12     0.122 A 
HETATM    6  C6  PRZ A 300      -7.092   3.505   5.525  1.00 42.19     0.119 A 
ENDROOT
BRANCH   2   7
HETATM    7  C21 PRZ A 300      -6.431   6.146   8.080  1.00 35.53     0.050 C 
BRANCH   7   8
HETATM    8  C22 PRZ A 300      -5.724   5.553   9.307  1.00 30.67     0.006 C 
HETATM    9  C23 PRZ A 300      -6.759   4.878  10.211  1.00 31.70     0.000 C 
HETATM   10  C24 PRZ A 300      -4.954   6.631  10.080  1.00 29.79     0.000 C 
ENDBRANCH   7   8
ENDBRANCH   2   7
BRANCH   3  11
HETATM   11  O31 PRZ A 300      -4.204   6.276   6.260  1.00 20.55    -0.311 OA
HETATM   12  C31 PRZ A 300      -4.322   7.493   5.533  1.00 23.58     0.183 C 
ENDBRANCH   3  11
TORSDOF 3
ENDMDL
